This module prints a text with two new lines

Usage
=====

``text_indentation(text)`` prints a text with 2 new lines after each of these characters: ., ? and :

::

	>>> text_indentation = __import__('5-text_indentation').text_indentation
	>>> text_indentation("New school?")
	New school?
	<BLANKLINE>

there should be no space at beginning or end of new line

::

	>>> text_indentation("   New school:")
	New school:
	<BLANKLINE>

::

	>>> text_indentation("New school.   ")
	New school.
	<BLANKLINE>

special characters are printed as normal e.g \n, \t

::

	>>> text_indentation("New school: \nNew line.")
	New school:
	<BLANKLINE>
	<BLANKLINE>
	New line.
	<BLANKLINE>

`text` must be a string

::

	>>> text_indentation(3)
	Traceback (most recent call last):
	TypeError: text must be a string

::

	>>> text_indentation(["four", {"one": 1}])
	Traceback (most recent call last):
	TypeError: text must be a string

::

	>>> text_indentation()
	Traceback (most recent call last):
	TypeError: text_indentation() missing 1 required positional argument: 'text'
